Program Version,EnergyPlus, Version 23.2.0-7636e6b3e9, YMD=2024.04.01 10:52,
Var Type (reported time step),Var Report Type,Variable Name [Units]
Zone,Meter,EnergyTransfer:Facility [J]
Zone,Meter,EnergyTransfer:Building [J]
Zone,Meter,EnergyTransfer:Zone:ZONE ONE [J]
Zone,Meter,Heating:EnergyTransfer [J]
Zone,Meter,Heating:EnergyTransfer:Zone:ZONE ONE [J]
Zone,Meter,General:Heating:EnergyTransfer [J]
Zone,Meter,General:Heating:EnergyTransfer:Zone:ZONE ONE [J]
Zone,Meter,Cooling:EnergyTransfer [J]
Zone,Meter,Cooling:EnergyTransfer:Zone:ZONE ONE [J]
Zone,Meter,General:Cooling:EnergyTransfer [J]
Zone,Meter,General:Cooling:EnergyTransfer:Zone:ZONE ONE [J]
Zone,Meter,DistrictHeatingWater:Facility [J]
Zone,Meter,DistrictHeatingWater:HVAC [J]
Zone,Meter,Heating:DistrictHeatingWater [J]
Zone,Meter,General:Heating:DistrictHeatingWater [J]
Zone,Meter,DistrictCooling:Facility [J]
Zone,Meter,DistrictCooling:HVAC [J]
Zone,Meter,Cooling:DistrictCooling [J]
Zone,Meter,General:Cooling:DistrictCooling [J]
Zone,Meter,Carbon Equivalent:Facility [kg]
Zone,Meter,CarbonEquivalentEmissions:Carbon Equivalent [kg]
