Program Version,EnergyPlus, Version 24.1.0-9d7789a3ac, YMD=2024.05.24 16:55
