Program Version,EnergyPlus, Version 24.1.0-9d7789a3ac, YMD=2024.05.24 16:55,
   ** Warning ** GetSimpleAirModelInputs: ZoneInfiltration:DesignFlowRate="LIVING ZONE INFIL 1", Design Flow Rate Calculation Method specifies Flow Rate per Floor Area, but that field is blank.  0 Infiltration will result.
   ** Severe  ** DualSetPointWithDeadBand: When Temperature Difference Between Cutout And Setpoint is applied, the heating setpoint is greater than the cooling setpoint. 
   **   ~~~   ** occurs in Zone=LIVING ZONE During Warmup, Environment=CHICAGO_IL_USA ANNUAL HEATING 99% DESIGN CONDITIONS DB, at Simulation time=01/21 00:00 - 00:10
   **   ~~~   ** Zone Heating ThermostatSetPoint=23.11
   **   ~~~   ** Zone Cooling ThermostatSetPoint=22.26
   **  Fatal  ** Program terminates due to above conditions.
   ...Summary of Errors that led to program termination:
   ..... Reference severe error count=1
   ..... Last severe error=DualSetPointWithDeadBand: When Temperature Difference Between Cutout And Setpoint is applied, the heating setpoint is greater than the cooling setpoint. 
   ************* Warning:  Node connection errors not checked - most system input has not been read (see previous warning).
   ************* Fatal error -- final processing.  Program exited before simulations began.  See previous error messages.
   ************* EnergyPlus Warmup Error Summary. During Warmup: 0 Warning; 0 Severe Errors.
   ************* EnergyPlus Sizing Error Summary. During Sizing: 0 Warning; 0 Severe Errors.
   ************* EnergyPlus Terminated--Fatal Error Detected. 1 Warning; 1 Severe Errors; Elapsed Time=00hr 00min  0.04sec
