Program Version,EnergyPlus, Version 24.2.0-94a887817b, YMD=2025.01.30 20:38,
   ** Severe  ** WaterHeater:Mixed = NEW WATER HEATER:  Setpoint Temperature Schedule Name not found = HOT WATER SETPOINT TEMP
   ** Severe  ** WaterHeater:Mixed = NEW WATER HEATER:  Ambient Temperature Zone not found = APPROPRIATE ZONE NAME
   ************* Testing Individual Branch Integrity
   ************* All Branches passed integrity testing
   ************* Testing Individual Supply Air Path Integrity
   ************* All Supply Air Paths passed integrity testing
   ************* Testing Individual Return Air Path Integrity
   ************* All Return Air Paths passed integrity testing
   ** Severe  ** Node Connection Error, Node="HOT WATER USE INLET NODE", Inlet node did not find an appropriate matching "outlet" node.
   **   ~~~   ** If this is an outdoor air inlet node, it must be listed in an OutdoorAir:Node or OutdoorAir:NodeList object.
   **   ~~~   ** Reference Object=WaterHeater:Mixed, Name=NEW WATER HEATER
   ** Severe  ** Node Connection Error, Node="HOT WATER SOURCE INLET NODE", Inlet node did not find an appropriate matching "outlet" node.
   **   ~~~   ** If this is an outdoor air inlet node, it must be listed in an OutdoorAir:Node or OutdoorAir:NodeList object.
   **   ~~~   ** Reference Object=WaterHeater:Mixed, Name=NEW WATER HEATER
   ** Warning ** Node Connection Error for object WATERHEATER:MIXED=NEW WATER HEATER
   **   ~~~   **   Use Side Water Nodes not on any Branch or Parent Object
   **   ~~~   **   Inlet Node : HOT WATER USE INLET NODE
   **   ~~~   **   Outlet Node: HOT WATER USE OUTLET NODE
   ** Warning ** Node Connection Error for object WATERHEATER:MIXED=NEW WATER HEATER
   **   ~~~   **   Source Side Water Nodes not on any Branch or Parent Object
   **   ~~~   **   Inlet Node : HOT WATER SOURCE INLET NODE
   **   ~~~   **   Outlet Node: HOT WATER SOURCE OUTLET NODE
   ************* There were 4 node connection errors noted.
   ************* Beginning Simulation
   ************* Simulation Error Summary *************
   *************
   ************* ===== Final Error Summary =====
   ************* The following error categories occurred.  Consider correcting or noting.
   ************* Node Connection Errors
   ************* ..Node connection errors are often caused by spelling mistakes in a node name field.
   ************* ..To track down the problem, search the idf file for each node name listed to see if it
   ************* ..occurs in the expected input fields.
   *************
   ************* EnergyPlus Warmup Error Summary. During Warmup: 0 Warning; 0 Severe Errors.
   ************* EnergyPlus Sizing Error Summary. During Sizing: 0 Warning; 0 Severe Errors.
   ************* EnergyPlus Completed Successfully-- 2 Warning; 4 Severe Errors; Elapsed Time=00hr 00min  3.28sec
