Program Version,EnergyPlus, Version 24.1.0-9d7789a3ac, YMD=2025.03.27 10:53
