Program Version,EnergyPlus, Version 24.2.0-94a887817b, YMD=2025.01.31 01:09,
   ************* Testing Individual Branch Integrity
   ************* All Branches passed integrity testing
   ************* Testing Individual Supply Air Path Integrity
   ************* All Supply Air Paths passed integrity testing
   ************* Testing Individual Return Air Path Integrity
   ************* All Return Air Paths passed integrity testing
   ************* No node connection errors were found.
   ************* Beginning Simulation
   ** Warning ** Calculated Relative Humidity out of range (PsyRhFnTdbWPb) 
   **   ~~~   **  Routine=Unknown, Environment=RUN PERIOD 1, at Simulation time=01/04 06:10 - 06:11
   **   ~~~   **  Dry-Bulb= 23.20 Humidity Ratio= 1.864E-002 Calculated Relative Humidity [%]= 101.26
   **   ~~~   ** Relative Humidity being reset to 100.0%
   ** Warning ** Coil:Cooling:DX:MultiSpeed "ACDXCOIL 1" - Air volume flow rate per watt of rated total cooling capacity is out of range at speed 1.
   **   ~~~   **  Environment=RUN PERIOD 1, at Simulation time=01/21 11:30 - 11:40
   **   ~~~   ** Expected range for VolumeFlowPerRatedTotalCapacity=[2.684E-005--6.713E-005] Current value is 6.728E-005 m3/s/W
   **   ~~~   ** Possible causes include inconsistent air flow rates in system components or
   **   ~~~   ** inconsistent supply air fan operation modes in coil and unitary system objects.
   ************* Simulation Error Summary *************
   *************
   ************* ===== Recurring Error Summary =====
   ************* The following recurring error messages occurred.
   *************
   *************  ** Warning ** Calculated Relative Humidity out of range (PsyRhFnTdbWPb)
   *************  **   ~~~   **   This error occurred 50 total times;
   *************  **   ~~~   **   during Warmup 0 times;
   *************  **   ~~~   **   during Sizing 0 times.
   *************  **   ~~~   **   Max=101.354800 %  Min=101.070765 %
   *************
   *************  ** Warning ** Coil:Cooling:DX:MultiSpeed "ACDXCOIL 1" - Air volume flow rate per watt of rated total cooling capacity is out of range at speed 1 error continues...
   *************  **   ~~~   **   This error occurred 118370 total times;
   *************  **   ~~~   **   during Warmup 5394 times;
   *************  **   ~~~   **   during Sizing 0 times.
   *************  **   ~~~   **   Max=0.000073  Min=0.000067
   *************
   ************* EnergyPlus Warmup Error Summary. During Warmup: 0 Warning; 0 Severe Errors.
   ************* EnergyPlus Sizing Error Summary. During Sizing: 0 Warning; 0 Severe Errors.
   ************* EnergyPlus Completed Successfully-- 118420 Warning; 0 Severe Errors; Elapsed Time=00hr 00min  3.75sec
