Program Version,EnergyPlus, Version 24.2.0-94a887817b, YMD=2025.02.12 11:46
! <Version>, Version ID
 Version, 24.2
! <Timesteps per Hour>, #TimeSteps, Minutes per TimeStep {minutes}
 Timesteps per Hour,  6, 10
! <System Convergence Limits>, Minimum System TimeStep {minutes}, Max HVAC Iterations, Minimum Plant Iterations, Maximum Plant Iterations
 System Convergence Limits, 1, 20, 2, 8
! <Simulation Control>, Do Zone Sizing, Do System Sizing, Do Plant Sizing, Do Design Days, Do Weather Simulation, Do HVAC Sizing Simulation
 Simulation Control, No, No, No, No, Yes, No
! <Performance Precision Tradeoffs>, Use Coil Direct Simulation, Zone Radiant Exchange Algorithm, Override Mode, Number of Timestep In Hour, Force Euler Method, Minimum Number of Warmup Days, Force Suppress All Begin Environment Resets, Minimum System Timestep, MaxZoneTempDiff, MaxAllowedDelTemp
 Performance Precision Tradeoffs, No, ScriptF, Normal, 6, No, 1, No, 1.0, 0.300, 2.0000E-003
! <Output Reporting Tolerances>, Tolerance for Time Heating Setpoint Not Met, Tolerance for Zone Cooling Setpoint Not Met Time
 Output Reporting Tolerances, 0.200, 0.200, 
! <Site:GroundTemperature:BuildingSurface>,Jan{C},Feb{C},Mar{C},Apr{C},May{C},Jun{C},Jul{C},Aug{C},Sep{C},Oct{C},Nov{C},Dec{C}
 Site:GroundTemperature:BuildingSurface,  20.03,  20.03,  20.13,  20.30,  20.43,  20.52,  20.62,  20.77,  20.78,  20.55,  20.44,  20.20
! <Site:GroundTemperature:FCfactorMethod>,Jan{C},Feb{C},Mar{C},Apr{C},May{C},Jun{C},Jul{C},Aug{C},Sep{C},Oct{C},Nov{C},Dec{C}
 Site:GroundTemperature:FCfactorMethod,  -1.89,  -3.06,  -0.99,   2.23,  10.68,  17.20,  21.60,  22.94,  20.66,  15.60,   8.83,   2.56
! <Site:GroundTemperature:Shallow>,Jan{C},Feb{C},Mar{C},Apr{C},May{C},Jun{C},Jul{C},Aug{C},Sep{C},Oct{C},Nov{C},Dec{C}
 Site:GroundTemperature:Shallow,  13.00,  13.00,  13.00,  13.00,  13.00,  13.00,  13.00,  13.00,  13.00,  13.00,  13.00,  13.00
! <Site:GroundTemperature:Deep>,Jan{C},Feb{C},Mar{C},Apr{C},May{C},Jun{C},Jul{C},Aug{C},Sep{C},Oct{C},Nov{C},Dec{C}
 Site:GroundTemperature:Deep,  16.00,  16.00,  16.00,  16.00,  16.00,  16.00,  16.00,  16.00,  16.00,  16.00,  16.00,  16.00
! <Site:GroundReflectance>,Jan{dimensionless},Feb{dimensionless},Mar{dimensionless},Apr{dimensionless},May{dimensionless},Jun{dimensionless},Jul{dimensionless},Aug{dimensionless},Sep{dimensionless},Oct{dimensionless},Nov{dimensionless},Dec{dimensionless}
 Site:GroundReflectance,  0.20,  0.20,  0.20,  0.20,  0.20,  0.20,  0.20,  0.20,  0.20,  0.20,  0.20,  0.20
! <Site:GroundReflectance:SnowModifier>, Normal, Daylighting {dimensionless}
 Site:GroundReflectance:SnowModifier,   1.000,   1.000
! <Site:GroundReflectance:Snow>,Jan{dimensionless},Feb{dimensionless},Mar{dimensionless},Apr{dimensionless},May{dimensionless},Jun{dimensionless},Jul{dimensionless},Aug{dimensionless},Sep{dimensionless},Oct{dimensionless},Nov{dimensionless},Dec{dimensionless}
 Site:GroundReflectance:Snow,  0.20,  0.20,  0.20,  0.20,  0.20,  0.20,  0.20,  0.20,  0.20,  0.20,  0.20,  0.20
! <Site:GroundReflectance:Snow:Daylighting>,Jan{dimensionless},Feb{dimensionless},Mar{dimensionless},Apr{dimensionless},May{dimensionless},Jun{dimensionless},Jul{dimensionless},Aug{dimensionless},Sep{dimensionless},Oct{dimensionless},Nov{dimensionless},Dec{dimensionless}
 Site:GroundReflectance:Snow:Daylighting,  0.20,  0.20,  0.20,  0.20,  0.20,  0.20,  0.20,  0.20,  0.20,  0.20,  0.20,  0.20
! <Environment:Weather Station>,Wind Sensor Height Above Ground {m},Wind Speed Profile Exponent {},Wind Speed Profile Boundary Layer Thickness {m},Air Temperature Sensor Height Above Ground {m},Wind Speed Modifier Coefficient-Internal,Temperature Modifier Coefficient-Internal
Environment:Weather Station,10.000,0.140,270.000,1.500,1.586,9.750E-003
! <Site:Location>, Location Name, Latitude {N+/S- Deg}, Longitude {E+/W- Deg},  Time Zone Number {GMT+/-}, Elevation {m},  Standard Pressure at Elevation {Pa}, Standard RhoAir at Elevation
Site:Location,Chicago OHare Intl AP IL USA customized weather file WMO#=725300,41.98,-87.92,-6.00,201.00,98934,1.1759
! <Site Water Mains Temperature Information>,Calculation Method{},Water Mains Temperature Schedule Name{},Annual Average Outdoor Air Temperature{C},Maximum Difference In Monthly Average Outdoor Air Temperatures{deltaC},Fixed Default Water Mains Temperature{C}
Site Water Mains Temperature Information,FixedDefault,NA,NA,NA,10.0
! <Building Information>, Building Name,North Axis {deg},Terrain,  Loads Convergence Tolerance Value,Temperature Convergence Tolerance Value,  Solar Distribution,Maximum Number of Warmup Days,Minimum Number of Warmup Days
 Building Information,Single family House,0.000,Suburbs,1.00000E-003,5.00000E-003,FullInteriorAndExterior,25,6
! <Inside Convection Algorithm>, Algorithm {Simple | TARP | CeilingDiffuser | AdaptiveConvectionAlgorithm}
Inside Convection Algorithm,TARP
! <Outside Convection Algorithm>, Algorithm {SimpleCombined | TARP | MoWitt | DOE-2 | AdaptiveConvectionAlgorithm}
Outside Convection Algorithm,DOE-2
! <Sky Radiance Distribution>, Value {Anisotropic}
Sky Radiance Distribution,Anisotropic
! <Zone Air Solution Algorithm>, Algorithm {ThirdOrderBackwardDifference | AnalyticalSolution | EulerMethod}, Space Heat Balance Sizing, Space Heat Balance Simulation
 Zone Air Solution Algorithm, ThirdOrderBackwardDifference, No, No
! <Zone Air Carbon Dioxide Balance Simulation>, Simulation {Yes/No}, Carbon Dioxide Concentration
 Zone Air Carbon Dioxide Balance Simulation, No,N/A
! <Zone Air Generic Contaminant Balance Simulation>, Simulation {Yes/No}, Generic Contaminant Concentration
 Zone Air Generic Contaminant Balance Simulation, No,N/A
! <Zone Air Mass Flow Balance Simulation>, Enforce Mass Balance, Adjust Zone Mixing and Return {AdjustMixingOnly | AdjustReturnOnly | AdjustMixingThenReturn | AdjustReturnThenMixing | None}, Adjust Zone Infiltration {AddInfiltration | AdjustInfiltration | None}, Infiltration Zones {MixingSourceZonesOnly | AllZones}
 Zone Air Mass Flow Balance Simulation, No,N/A,N/A,N/A
! <HVACSystemRootFindingAlgorithm>, Value {RegulaFalsi | Bisection | BisectionThenRegulaFalsi | RegulaFalsiThenBisection}
 HVACSystemRootFindingAlgorithm, RegulaFalsi
! <Environment:Site Atmospheric Variation>,Wind Speed Profile Exponent {},Wind Speed Profile Boundary Layer Thickness {m},Air Temperature Gradient Coefficient {K/m}
Environment:Site Atmospheric Variation,0.220,370.000,6.500000E-003
! <Shadowing/Sun Position Calculations Annual Simulations>, Shading Calculation Method, Shading Calculation Update Frequency Method, Shading Calculation Update Frequency {days}, Maximum Figures in Shadow Overlap Calculations {}, Polygon Clipping Algorithm, Pixel Counting Resolution, Sky Diffuse Modeling Algorithm, Output External Shading Calculation Results, Disable Self-Shading Within Shading Zone Groups, Disable Self-Shading From Shading Zone Groups to Other Zones
Shadowing/Sun Position Calculations Annual Simulations,PolygonClipping,Periodic,20,15000,SutherlandHodgman,512,SimpleSkyDiffuseModeling,No,No,No
! <Surface Geometry>,Starting Corner,Vertex Input Direction,Coordinate System,Daylight Reference Point Coordinate System,Rectangular (Simple) Surface Coordinate System
 Surface Geometry,UpperLeftCorner,Counterclockwise,WorldCoordinateSystem,RelativeCoordinateSystem,RelativeToZoneOrigin
! <Surface Heat Transfer Algorithm>, Value {CTF - ConductionTransferFunction | EMPD - MoisturePenetrationDepthConductionTransferFunction | CondFD - ConductionFiniteDifference | HAMT - CombinedHeatAndMoistureFiniteElement} - Description,Inside Surface Max Temperature Limit{C}, Surface Convection Coefficient Lower Limit {W/m2-K}, Surface Convection Coefficient Upper Limit {W/m2-K}
Surface Heat Transfer Algorithm, CTF - ConductionTransferFunction,200,0.10,1000.0
! <Shading Summary>, Number of Fixed Detached Shades, Number of Building Detached Shades, Number of Attached Shades
 Shading Summary,0,0,0
! <Zone Summary>, Number of Zones, Number of Zone Surfaces, Number of SubSurfaces
 Zone Summary,3,29,4
! <Zone Information>,Zone Name,North Axis {deg},Origin X-Coordinate {m},Origin Y-Coordinate {m},Origin Z-Coordinate {m},Centroid X-Coordinate {m},Centroid Y-Coordinate {m},Centroid Z-Coordinate {m},Type,Zone Multiplier,Zone List Multiplier,Minimum X {m},Maximum X {m},Minimum Y {m},Maximum Y {m},Minimum Z {m},Maximum Z {m},Ceiling Height {m},Volume {m3},Zone Inside Convection Algorithm {Simple-Detailed-CeilingDiffuser-TrombeWall},Zone Outside Convection Algorithm {Simple-Detailed-Tarp-MoWitt-DOE-2-BLAST}, Floor Area {m2},Exterior Gross Wall Area {m2},Exterior Net Wall Area {m2},Exterior Window Area {m2}, Number of Surfaces, Number of SubSurfaces, Number of Shading SubSurfaces,  Part of Total Building Area
 Zone Information, LIVING ZONE,0.0,0.00,0.00,0.00,8.62,5.39,1.22,1,1,1,0.00,17.24,0.00,10.78,0.00,2.44,2.44,453.14,TARP,DOE-2,185.83,119.78,91.90,27.87,7,4,0,Yes
 Zone Information, GARAGE ZONE,0.0,0.00,0.00,0.00,13.78,13.83,1.22,1,1,1,10.32,17.24,10.78,16.88,0.00,2.44,2.44,102.88,TARP,DOE-2,42.19,46.61,46.61,0.00,6,0,0,Yes
 Zone Information, ATTIC ZONE,0.0,0.00,0.00,0.00,9.57,6.97,3.01,1,1,1,0.00,17.24,0.00,16.88,2.44,4.68,1.05,244.85,TARP,DOE-2,228.03,29.19,29.19,0.00,12,0,0,Yes
! <Zone Internal Gains Nominal>,Zone Name, Floor Area {m2},# Occupants,Area per Occupant {m2/person},Occupant per Area {person/m2},Interior Lighting {W/m2},Electric Load {W/m2},Gas Load {W/m2},Other Load {W/m2},Hot Water Eq {W/m2},Steam Equipment {W/m2},Sum Loads per Area {W/m2},Outdoor Controlled Baseboard Heat
 Zone Internal Gains Nominal, LIVING ZONE,185.83,3.1,60.524,1.652E-002,5.375,2.745,0.000,0.000,0.000,0.000,8.120,No
 Zone Internal Gains Nominal, GARAGE ZONE,42.19,0.0,N/A,0.000,0.000,0.000,0.000,0.000,0.000,0.000,0.000,No
 Zone Internal Gains Nominal, ATTIC ZONE,228.03,0.0,N/A,0.000,0.000,0.000,0.000,0.000,0.000,0.000,0.000,No
! <People Internal Gains Nominal>,Name,Schedule Name,Zone Name,Zone Floor Area {m2},# Zone Occupants,Number of People {},People/Floor Area {person/m2},Floor Area per person {m2/person},Fraction Radiant,Fraction Convected,Sensible Fraction Calculation,Activity level,ASHRAE 55 Warnings,Carbon Dioxide Generation Rate,Minimum Number of People for All Day Types,Maximum Number of People for All Day Types,Minimum Number of People for Weekdays, Maximum Number of People for Weekdays, Minimum Number of People for Weekends/Holidays, Maximum Number of People for Weekends /Holidays,Minimum Number of People for Summer Design Days, Maximum Number of People for Summer Design Days,Minimum Number of People for Winter Design Days, Maximum Number of People for Winter Design Days,MRT Calculation Type,Work Efficiency, Clothing Insulation Calculation Method,Clothing Insulation Calculation Method Schedule,Clothing,Air Velocity,Fanger Calculation,Pierce Calculation,KSU Calculation,Cooling Effect Calculation,Ankle Draft Calculation
 People Internal Gains Nominal, LIVING ZONE PEOPLE,HOUSE OCCUPANCY,LIVING ZONE,185.83,3.1,3.1,1.652E-002,60.524,0.300,0.700,AutoCalculate,ACTIVITY SCH,No,3.8200E-008,0.0,3.1,0.3,3.1,0.0,0.0,0.0,0.0,0.0,0.0,Zone Averaged,WORK EFF SCH,Clothing Insulation Schedule,N/A,CLOTHING SCH,AIR VELO SCH,Yes,No,No,No,No
! <Lights Internal Gains Nominal>,Name,Schedule Name,Zone Name,Zone Floor Area {m2},# Zone Occupants,Lighting Level {W},Lights/Floor Area {W/m2},Lights per person {W/person},Fraction Return Air,Fraction Radiant,Fraction Short Wave,Fraction Convected,Fraction Replaceable,End-Use, Minimum Lighting Level for All Day Types {W},Maximum Lighting Level for All Day Types {W},Minimum Lighting Level for Weekdays {W}, Maximum Lighting Level for Weekdays {W},Minimum Lighting Level for Weekends/Holidays {W}, Maximum Lighting Level for Weekends /Holidays {W},Minimum Lighting Level for Summer Design Days {W}, Maximum Lighting Level for Summer Design Days {W},Minimum Lighting Level for Winter Design Days {W}, Maximum Lighting Level for Winter Design Days {W}
 Lights Internal Gains Nominal, LIVING ZONE LIGHTS,HOUSE LIGHTING,LIVING ZONE,185.83,3.1,998.894,5.375,325.330,0.000,0.200,0.200,0.600,0.000,GeneralLights,49.945,998.894,49.945,998.9,49.945,49.945,49.945,49.945,49.945,49.945
! <ElectricEquipment Internal Gains Nominal>,Name,Schedule Name,Zone Name,Zone Floor Area {m2},# Zone Occupants,Equipment Level {W},Equipment/Floor Area {W/m2},Equipment per person {W/person},Fraction Latent,Fraction Radiant,Fraction Lost,Fraction Convected,End-Use SubCategory,Minimum Equipment Level for All Day Types {W},Maximum Equipment Level for All Day Types {W},Minimum Equipment Level for Weekdays {W}, Maximum Equipment Level for Weekdays {W},Minimum Equipment Level for Weekends/Holidays {W}, Maximum Equipment Level for Weekends /Holidays {W},Minimum Equipment Level for Summer Design Days {W}, Maximum Equipment Level for Summer Design Days {W},Minimum Equipment Level for Winter Design Days {W}, Maximum Equipment Level for Winter Design Days {W}
 ElectricEquipment Internal Gains Nominal, LIVING ZONE ELECEQ,INTERMITTENT,LIVING ZONE,185.83,3.1,510.046,2.745,166.117,0.000,0.300,0.000,0.700,General,0.000,510.046,0.000,510.046,0.000,0.000,0.000,0.000,0.000,0.000
! <ZoneInfiltration Airflow Stats Nominal>,Name,Schedule Name,Zone Name, Zone Floor Area {m2}, # Zone Occupants,Design Volume Flow Rate {m3/s},Volume Flow Rate/Floor Area {m3/s-m2},Volume Flow Rate/Exterior Surface Area {m3/s-m2},ACH - Air Changes per Hour,Equation A - Constant Term Coefficient {},Equation B - Temperature Term Coefficient {1/C},Equation C - Velocity Term Coefficient {s/m}, Equation D - Velocity Squared Term Coefficient {s2/m2}
 ZoneInfiltration Airflow Stats Nominal, LIVING ZONE INFIL 1,INF-SCHED,LIVING ZONE,185.83,3.1,1.043E-002,5.614E-005,8.710E-005,8.289E-002,1.000,0.000,0.000,0.000
 ZoneInfiltration Airflow Stats Nominal, ATTIC ZONE INFIL 1,INF-SCHED,ATTIC ZONE,228.03,0.0,1.007E-002,4.416E-005,3.645E-005,0.148,1.000,0.000,0.000,0.000
 ZoneInfiltration Airflow Stats Nominal, GARAGE ZONE INFIL 1,INF-SCHED,GARAGE ZONE,42.19,0.0,1.008E-002,2.388E-004,2.162E-004,0.353,1.000,0.000,0.000,0.000
! <ZoneVentilation Airflow Stats Nominal>,Name,Schedule Name,Zone Name, Zone Floor Area {m2}, # Zone Occupants,Design Volume Flow Rate {m3/s},Volume Flow Rate/Floor Area {m3/s-m2},Volume Flow Rate/person Area {m3/s-person},ACH - Air Changes per Hour,Fan Type {Exhaust;Intake;Natural},Fan Pressure Rise {Pa},Fan Efficiency {},Equation A - Constant Term Coefficient {},Equation B - Temperature Term Coefficient {1/C},Equation C - Velocity Term Coefficient {s/m}, Equation D - Velocity Squared Term Coefficient {s2/m2},Minimum Indoor Temperature{C}/Schedule,Maximum Indoor Temperature{C}/Schedule,Delta Temperature{C}/Schedule,Minimum Outdoor Temperature{C}/Schedule,Maximum Outdoor Temperature{C}/Schedule,Maximum WindSpeed{m/s}
 ZoneVentilation Airflow Stats Nominal, LIVING ZONE VENTL 1,INF-SCHED,LIVING ZONE,185.83,3.1,0.132,7.100E-004,4.297E-002,1.048,Balanced,400.000,0.9,0.606,3.636E-002,0.118,0.000,18.00,100.00,1.00,-100.00,100.00,40.00
! <AirFlow Model>, Simple
 AirFlow Model, Simple
! <RoomAir Model>, Zone Name, Mixing/Mundt/UCSDDV/UCSDCV/UCSDUFI/UCSDUFE/User Defined
RoomAir Model,LIVING ZONE,Mixing/Well-Stirred
RoomAir Model,GARAGE ZONE,Mixing/Well-Stirred
RoomAir Model,ATTIC ZONE,Mixing/Well-Stirred
! <AirflowNetwork Model:Control>, No Multizone or Distribution/Multizone with Distribution/Multizone without Distribution/Multizone with Distribution only during Fan Operation
AirflowNetwork Model:Control,NoMultizoneOrDistribution
! <Zone Volume Capacitance Multiplier>, Sensible Heat Capacity Multiplier, Moisture Capacity Multiplier, Carbon Dioxide Capacity Multiplier, Generic Contaminant Capacity Multiplier
Zone Volume Capacitance Multiplier,   1.000 ,   1.000,   1.000,   1.000
! <Component Sizing Information>, Component Type, Component Name, Input Field Description, Value
 Component Sizing Information, AirTerminal:SingleDuct:ConstantVolume:NoReheat, ZONEDIRECTAIR, User-Specified Maximum Air Flow Rate [m3/s], 0.75510
 Component Sizing Information, AirLoopHVAC:UnitaryHeatPump:AirToAir:MultiSpeed, TWOSPEED HEAT PUMP 1, Fraction of Supply Air Flow That Goes Through the Controlling Zone, 1.00000
 Component Sizing Information, Fan:OnOff, SUPPLY FAN 1, User-Specified Maximum Flow Rate [m3/s], 0.75510
 Component Sizing Information, Fan:OnOff, SUPPLY FAN 1, Design Electric Power Consumption [W], 431.48571
 Component Sizing Information, Coil:Cooling:DX:MultiSpeed, ACDXCOIL 1, User-Specified Speed 2 Rated Air Flow Rate [m3/s], 0.75510
 Component Sizing Information, Coil:Cooling:DX:MultiSpeed, ACDXCOIL 1, User-Specified Speed 1 Rated Air Flow Rate [m3/s], 0.61350
 Component Sizing Information, Coil:Cooling:DX:MultiSpeed, ACDXCOIL 1, User-Specified Speed 2 Gross Rated Total Cooling Capacity [W], 13826.00000
 Component Sizing Information, Coil:Cooling:DX:MultiSpeed, ACDXCOIL 1, User-Specified Speed 1 Gross Rated Total Cooling Capacity [W], 10266.00000
 Component Sizing Information, Coil:Cooling:DX:MultiSpeed, ACDXCOIL 1, User-Specified Speed 2 Rated Sensible Heat Ratio, 0.75800
 Component Sizing Information, Coil:Cooling:DX:MultiSpeed, ACDXCOIL 1, User-Specified Speed 1 Rated Sensible Heat Ratio, 0.81000
! <DX Cooling Coil Standard Rating Information>, Component Type, Component Name, Standard Rating (Net) Cooling Capacity {W}, Standard Rating Net COP {W/W}, EER {Btu/W-h}, SEER User {Btu/W-h}, SEER Standard {Btu/W-h}, IEER {Btu/W-h}
 DX Cooling Coil Standard Rating Information, Coil:Cooling:DX:MultiSpeed, ACDXCOIL 1, 13135.3, 3.40, 11.60, 14.10, 13.54, 0
! <DX Cooling Coil AHRI 2023 Standard Rating Information>, Component Type, Component Name, Standard Rating (Net) Cooling Capacity {W}, Standard Rating Net COP2 {W/W}, EER2 {Btu/W-h}, SEER2 User {Btu/W-h}, SEER2 Standard {Btu/W-h}, IEER 2022 {Btu/W-h}
 DX Cooling Coil AHRI 2023 Standard Rating Information, Coil:Cooling:DX:MultiSpeed, ACDXCOIL 1, 13815.7, 3.12, 10.66, 12.65, 12.22, 11.7
 Component Sizing Information, Coil:Heating:DX:MultiSpeed, HEAT PUMP DX HEATING COIL 1, User-Specified Speed 2 Rated Air Flow Rate [m3/s], 0.75510
 Component Sizing Information, Coil:Heating:DX:MultiSpeed, HEAT PUMP DX HEATING COIL 1, User-Specified Speed 1 Rated Air Flow Rate [m3/s], 0.61350
 Component Sizing Information, Coil:Heating:DX:MultiSpeed, HEAT PUMP DX HEATING COIL 1, User-Specified Speed 2 Gross Rated Heating Capacity [W], 13866.00000
 Component Sizing Information, Coil:Heating:DX:MultiSpeed, HEAT PUMP DX HEATING COIL 1, User-Specified Speed 1 Gross Rated Heating Capacity [W], 10164.00000
! <DX Heating Coil Standard Rating Information>, Component Type, Component Name, High Temperature Heating (net) Rating Capacity {W}, Low Temperature Heating (net) Rating Capacity {W}, HSPF {Btu/W-h}, Region Number
 DX Heating Coil Standard Rating Information, Coil:Heating:DX:MultiSpeed, HEAT PUMP DX HEATING COIL 1, 13652.1, 8840.9, 8.28, 4
! <DX Heating Coil AHRI 2023 Standard Rating Information>, Component Type, Component Name, High Temperature Heating (net) Rating Capacity {W}, Low Temperature Heating (net) Rating Capacity {W}, HSPF2 {Btu/W-h}, Region Number
 DX Heating Coil AHRI 2023 Standard Rating Information, Coil:Heating:DX:MultiSpeed, HEAT PUMP DX HEATING COIL 1, 13849.2, 9038.1, 7.40, 4
 Component Sizing Information, Coil:Heating:Fuel, SUPP HEATING COIL 1, User-Specified Nominal Capacity [W], 55000.00000
! <Environment>,Environment Name,Environment Type, Start Date, End Date, Start DayOfWeek, Duration {#days}, Source:Start DayOfWeek,  Use Daylight Saving, Use Holidays, Apply Weekend Holiday Rule,  Use Rain Values, Use Snow Values, Sky Temperature Model
! <Environment:Special Days>, Special Day Name, Special Day Type, Source, Start Date, Duration {#days}
! <Environment:Daylight Saving>, Daylight Saving Indicator, Source, Start Date, End Date
! <Environment:WarmupDays>, NumberofWarmupDays
Environment,RUN PERIOD 1,WeatherFileRunPeriod,01/01/2013,12/31/2013,Tuesday,365,Use RunPeriod Specified Day,Yes,Yes,No,Yes,Yes,Clark and Allen
Environment:Daylight Saving,No,
Environment:WarmupDays, 25
! <Warmup Convergence Information>,Zone Name,Environment Type/Name,Average Warmup Temperature Difference {deltaC},Std Dev Warmup Temperature Difference {deltaC},Max Temperature Pass/Fail Convergence,Min Temperature Pass/Fail Convergence,Average Warmup Load Difference {W},Std Dev Warmup Load Difference {W},Heating Load Pass/Fail Convergence,Cooling Load Pass/Fail Convergence
 Warmup Convergence Information,LIVING ZONE,RunPeriod: RUN PERIOD 1,0.3426844144,0.3596186649,Pass,Fail,0.4448896532,0.9149023514,Pass,Pass
 Warmup Convergence Information,GARAGE ZONE,RunPeriod: RUN PERIOD 1,7.3747848779E-002,6.5223826838E-002,Pass,Pass,0.0000000000,0.0000000000,Pass,Pass
 Warmup Convergence Information,ATTIC ZONE,RunPeriod: RUN PERIOD 1,0.3238358325,0.2248792470,Fail,Pass,0.0000000000,0.0000000000,Pass,Pass
Environment,RUN PERIOD 2,WeatherFileRunPeriod,07/07/2015,07/07/2015,Tuesday,1,Use RunPeriod Specified Day,Yes,Yes,No,Yes,No,Clark and Allen
Environment:Daylight Saving,No,
Environment:WarmupDays,  6
 Warmup Convergence Information,LIVING ZONE,RunPeriod: RUN PERIOD 2,0.3822925519,0.3668331272,Pass,Pass,0.5484013032,2.3737045731,Pass,Pass
 Warmup Convergence Information,GARAGE ZONE,RunPeriod: RUN PERIOD 2,0.1417965293,9.3729934429E-002,Pass,Pass,0.0000000000,0.0000000000,Pass,Pass
 Warmup Convergence Information,ATTIC ZONE,RunPeriod: RUN PERIOD 2,0.4663174355,0.4086623107,Pass,Pass,0.0000000000,0.0000000000,Pass,Pass
! <Program Control Information:Threads/Parallel Sims>, Threading Supported,Maximum Number of Threads, Env Set Threads (OMP_NUM_THREADS), EP Env Set Threads (EP_OMP_NUM_THREADS), IDF Set Threads, Number of Threads Used (Interior Radiant Exchange), Number Nominal Surfaces, Number Parallel Sims
Program Control:Threads/Parallel Sims, No,1, N/A, N/A, N/A, N/A, N/A, N/A
End of Data
