Program Version,EnergyPlus, Version 24.2.0-94a887817b, YMD=2025.02.04 15:52,
   ** Severe  ** DualSetPointWithDeadBand: When Temperature Difference Between Cutout And Setpoint is applied, the heating setpoint is greater than the cooling setpoint. 
   **   ~~~   ** occurs in Zone=LIVING ZONE During Warmup, Environment=RUN PERIOD 1, at Simulation time=01/01 00:00 - 00:10
   **   ~~~   ** Zone Heating ThermostatSetPoint=25.99
   **   ~~~   ** Zone Cooling ThermostatSetPoint=24.19
   **  Fatal  ** Program terminates due to above conditions.
   ...Summary of Errors that led to program termination:
   ..... Reference severe error count=1
   ..... Last severe error=DualSetPointWithDeadBand: When Temperature Difference Between Cutout And Setpoint is applied, the heating setpoint is greater than the cooling setpoint. 
   ************* Warning:  Node connection errors not checked - most system input has not been read (see previous warning).
   ************* Fatal error -- final processing.  Program exited before simulations began.  See previous error messages.
   ************* EnergyPlus Warmup Error Summary. During Warmup: 0 Warning; 0 Severe Errors.
   ************* EnergyPlus Sizing Error Summary. During Sizing: 0 Warning; 0 Severe Errors.
   ************* EnergyPlus Terminated--Fatal Error Detected. 0 Warning; 1 Severe Errors; Elapsed Time=00hr 00min  0.04sec
